FoamFile
{
    version     2.0;
    format      ascii;
    class       volScalarField;
    object      Q2;
}

dimensions      [0 2 -1 0 0 0 0];

internalField   uniform 0;

boundaryField
{
    inlet
    {
        type            fixedValue;
        value           uniform 0;
    }

    side_wall
    {
        type            fixedValue;
        value           uniform 0;
    }

    bottom_wall
    {
        type            fixedValue;
        value           uniform 0;
    }

    outlet
    {
        type            fixedValue;
        value           uniform 0;
    }

    defaultFaces
    {
        type            empty;
    }
}
