FoamFile
{
    version     2.0;
    format      ascii;
    class       dictionary;
    location    "system";
    object      preciceDict;
}

preciceConfig "../../../../library/precice_configs/of_zoomy_bidirectional.xml";

participant Fluid2;

modules (FF);

interfaces
{
  Interface1
  {
    mesh              Fluid2-Mesh;
    patches           (inlet);
    
    readData
    (
      Alpha
      Velocity
    );
    
    writeData
    (
      AlphaBack
      VelocityBack
    );
  };
};

FF
{
  //nameP   p;
  nameAlpha alpha.water;
  nameU U;
}
