FoamFile
{
    version     2.0;
    format      ascii;
    class       dictionary;
    object      setFieldsDict;
}

defaultFieldValues
(
    volScalarFieldValue alpha.water 0
);

