FoamFile
{
    version     2.0;
    format      ascii;
    class       dictionary;
    object      fvSchemes;
}

ddtSchemes
{
    default         Euler;
}

gradSchemes
{
    //default         Gauss linear;
    default      cellLimited Gauss linear 1;
}

divSchemes
{
    default              none;
    //div(rhoPhi,U)        Gauss linear;
    div(rhoPhi,U)       bounded Gauss linearUpwind grad(U);
    div(phi,alpha)       Gauss interfaceCompression vanLeer 1;
    div(phi,k)           Gauss upwind;
    div(phi,epsilon)     Gauss upwind;

    // div(phi,epsilon)     bounded Gauss upwind;
    // div(phi,k)           bounded Gauss upwind;
    //div(phi,U)          bounded Gauss linearUpwind grad(U);
    // div(phi,U)          bounded Gauss upwind;
    // div(rhoPhi,U)       bounded Gauss linearUpwind grad(U);
    // div(phi,alpha)      Gauss vanLeer;
    // div(phirb,alpha)    Gauss interfaceCompression;
    // div(((rho*nuEff)*dev2(T(grad(U))))) Gauss linear;
}

laplacianSchemes
{
    default         Gauss linear corrected;
}

interpolationSchemes
{
    default         linear;
}

snGradSchemes
{
    default         corrected;
}

wallDist
{
    method meshWave;
}
