FoamFile
{
    version     2.0;
    format      ascii;
    class       dictionary;
    location    "system";
    object      preciceDict;
}

preciceConfig "../../../../../library/precice_configs/from_tut.xml";

participant Fluid2;

modules (FF);

interfaces
{
  Interface1
  {
    mesh              Fluid2-Mesh;
    patches           (inlet);
    
    readData
    (
      Velocity
      Alpha
    );
    
    writeData
    (
      Pressure
    );
  };
};

FF
{
  nameP   p_rgh;
  nameAlpha alpha.water;
}
