FoamFile
{
    version     2.0;
    format      ascii;
    class       dictionary;
    object      controlDict;
}

application     momentFoam;

startFrom       startTime;

startTime       0.0;

stopAt          endTime;

endTime         2.0;

deltaT          0.00001;

writeControl timeStep;

writeInterval 1;

purgeWrite      0;

writeFormat     ascii;

writePrecision  6;

writeCompression off;

timeFormat      general;

timePrecision   6;

runTimeModifiable yes;

adjustTimeStep  no;

maxCo           0.1;

maxDeltaT       1;


