FoamFile
{
    version     2.0;
    format      ascii;
    class       dictionary;
    object      fvSolution;
}

solvers
{
    "alpha.water.*"
    {
        nAlphaCorr      2;
        nAlphaSubCycles 1;
        cAlpha          1;

        MULESCorr       yes;
        nLimiterIter    5;

        solver          smoothSolver;
        smoother        symGaussSeidel;
        tolerance       1e-8;
        relTol          0;
    }

    "pcorr.*"
    {
        solver          PCG;
        preconditioner  DIC;
        tolerance       1e-5;
        relTol          0;
    }

    p_rgh
    {
        solver          PCG;
        preconditioner  DIC;
        tolerance       1e-07;
        relTol          0.01;

        //referenceCell    8965;
        //referenceValue   0;
    }

    p_rghFinal
    {
        $p_rgh;
        relTol          0;
    }

    U
    {
        solver          smoothSolver;
        smoother        symGaussSeidel;
        tolerance       1e-06;
        relTol          0;
    }
    UFinal
    {
        $U;
    }

    "(k|epsilon)"
    {
        solver          smoothSolver;
        smoother        symGaussSeidel;
        tolerance       1e-06;
        relTol          0.01;
    }
    "(k|epsilon)Final"
    {
        $U
        relTol          0;
    }
}

PIMPLE
{
    //momentumPredictor   no;
    //nOuterCorrectors    10;
    //nCorrectors         10;
    //nNonOrthogonalCorrectors 10;
    momentumPredictor   no;
    nOuterCorrectors    5;
    nCorrectors         1;
    nNonOrthogonalCorrectors 5;
}

relaxationFactors
{
    equations
    {
        ".*" 1;
    }
}
